ABABAH
  --CCDC--100219    3D                              

 44 45  0  0  0  0  0  0  0  0999 V2000
    2.9040    2.6588   13.4704 O      0
    3.7809    2.0122   15.4095 O      0
    1.5818    1.7083    7.4235 O      0
    2.8120    2.3588   14.7891 C      0
    1.3978    2.5243   15.2388 C      0
    1.2891    3.4795   15.5112 H      0
    0.5853    2.3316   13.9309 C      0
    1.5874    2.9922   12.9426 C      0
    1.4735    3.9839   13.0070 H      0
    1.0702    1.6749   16.4581 C      0
    0.1188    1.7619   16.6698 H      0
    1.6058    1.9788   17.2212 H      0
    1.2780    0.7360   16.2661 H      0
   -0.7228    3.1150   13.9693 C      0
   -1.3473    2.6790   14.5857 H      0
   -1.1147    3.1407   13.0726 H      0
   -0.5468    4.0298   14.2739 H      0
    0.3830    0.8355   13.6532 C      0
    0.0495    0.4212   14.4872 H      0
    1.2743    0.4438   13.4730 H      0
   -0.5580    0.3948   12.5101 C      0
   -0.5295    1.0850   11.7860 H      0
   -2.0017    0.2402   12.9830 C      0
   -2.5548   -0.0909   12.2455 H      0
   -2.3432    1.1091   13.2827 H      0
   -2.0364   -0.3971   13.7257 H      0
   -0.0656   -0.9264   11.9416 C      0
   -0.6421   -1.1969   11.1952 H      0
   -0.0928   -1.6127   12.6394 H      0
    0.8536   -0.8223   11.6219 H      0
    1.5743    2.6168   11.4847 C      0
    0.7959    3.3078   10.5670 C      0
    0.2499    4.0259   10.8638 H      0
    0.8011    2.9689    9.2270 C      0
    0.2524    3.4453    8.6155 H      0
    1.6028    1.9391    8.7776 C      0
    2.3840    1.2474    9.6691 C      0
    2.9395    0.5394    9.3671 H      0
    2.3593    1.5855   11.0128 C      0
    2.8962    1.0943   11.6219 H      0
    2.5102    0.7671    6.9157 C      0
    2.3754    0.6637    5.9504 H      0
    2.3741   -0.0964    7.3585 H      0
    3.4220    1.0826    7.0861 H      0
  1  4  1
  2  4  2
  3 36  1
  4  5  1
  5  6  1
  7  5  1
  8  1  1
  9  8  1
 10  5  1
 11 10  1
 12 10  1
 13 10  1
 14  7  1
 15 14  1
 16 14  1
 17 14  1
 18  7  1
 19 18  1
 20 18  1
 21 18  1
 22 21  1
 23 21  1
 24 23  1
 25 23  1
 26 23  1
 27 21  1
 28 27  1
 29 27  1
 30 27  1
 31  8  1
 32 31  4
 33 32  1
 34 32  4
 35 34  1
 36 34  4
 37 36  4
 38 37  1
 39 31  4
 40 39  1
 41  3  1
 42 41  1
 43 41  1
 44 41  1
  7  8  1
 37 39  4
M  END
$$$$
