../test/confs_local_minimization/33.opt.log
 OpenBabel11211918363D

 44 45  0  0  1  0  0  0  0  0999 V2000
   -1.2987   -1.9824   -0.2864 O   0  0  0  0  0  0  0  0  0  0  0  0
   -3.2344   -2.4613   -1.3320 O   0  0  0  0  0  0  0  0  0  0  0  0
    4.7650   -0.1745    0.3102 O   0  0  0  0  0  0  0  0  0  0  0  0
   -2.6252   -1.7905   -0.5386 C   0  0  0  0  0  0  0  0  0  0  0  0
   -3.1304   -0.6465    0.3293 C   0  0  1  0  0  0  0  0  0  0  0  0
   -3.4196   -1.1162    1.2844 H   0  0  0  0  0  0  0  0  0  0  0  0
   -1.8311    0.1718    0.6188 C   0  0  2  0  0  0  0  0  0  0  0  0
   -0.8411   -1.0468    0.7231 C   0  0  2  0  0  0  0  0  0  0  0  0
   -1.0170   -1.5183    1.7018 H   0  0  0  0  0  0  0  0  0  0  0  0
   -4.3652    0.0414   -0.2493 C   0  0  0  0  0  0  0  0  0  0  0  0
   -4.6902    0.8716    0.3873 H   0  0  0  0  0  0  0  0  0  0  0  0
   -5.1845   -0.6802   -0.3184 H   0  0  0  0  0  0  0  0  0  0  0  0
   -4.1879    0.4254   -1.2576 H   0  0  0  0  0  0  0  0  0  0  0  0
   -1.9308    0.9141    1.9558 C   0  0  0  0  0  0  0  0  0  0  0  0
   -2.7123    1.6810    1.9210 H   0  0  0  0  0  0  0  0  0  0  0  0
   -0.9912    1.4091    2.2192 H   0  0  0  0  0  0  0  0  0  0  0  0
   -2.1837    0.2214    2.7682 H   0  0  0  0  0  0  0  0  0  0  0  0
   -1.5083    1.1077   -0.5798 C   0  0  0  0  0  0  0  0  0  0  0  0
   -2.4298    1.6347   -0.8555 H   0  0  0  0  0  0  0  0  0  0  0  0
   -1.2713    0.4679   -1.4399 H   0  0  0  0  0  0  0  0  0  0  0  0
   -0.3930    2.1809   -0.4363 C   0  0  0  0  0  0  0  0  0  0  0  0
    0.3808    1.8132    0.2467 H   0  0  0  0  0  0  0  0  0  0  0  0
   -0.9272    3.5171    0.1100 C   0  0  0  0  0  0  0  0  0  0  0  0
   -0.1163    4.2499    0.1989 H   0  0  0  0  0  0  0  0  0  0  0  0
   -1.3916    3.4183    1.0954 H   0  0  0  0  0  0  0  0  0  0  0  0
   -1.6791    3.9386   -0.5705 H   0  0  0  0  0  0  0  0  0  0  0  0
    0.2731    2.4217   -1.8016 C   0  0  0  0  0  0  0  0  0  0  0  0
    1.0415    3.2010   -1.7338 H   0  0  0  0  0  0  0  0  0  0  0  0
   -0.4656    2.7483   -2.5458 H   0  0  0  0  0  0  0  0  0  0  0  0
    0.7504    1.5104   -2.1776 H   0  0  0  0  0  0  0  0  0  0  0  0
    0.6442   -0.8326    0.5644 C   0  0  0  0  0  0  0  0  0  0  0  0
    1.4164   -0.4506    1.6737 C   0  0  0  0  0  0  0  0  0  0  0  0
    0.9433   -0.3306    2.6458 H   0  0  0  0  0  0  0  0  0  0  0  0
    2.7821   -0.2294    1.5582 C   0  0  0  0  0  0  0  0  0  0  0  0
    3.3801    0.0667    2.4143 H   0  0  0  0  0  0  0  0  0  0  0  0
    3.4211   -0.4087    0.3219 C   0  0  0  0  0  0  0  0  0  0  0  0
    2.6713   -0.8185   -0.7860 C   0  0  0  0  0  0  0  0  0  0  0  0
    3.1424   -0.9884   -1.7474 H   0  0  0  0  0  0  0  0  0  0  0  0
    1.2951   -1.0259   -0.6558 C   0  0  0  0  0  0  0  0  0  0  0  0
    0.7266   -1.3678   -1.5141 H   0  0  0  0  0  0  0  0  0  0  0  0
    5.4677   -0.3573   -0.9091 C   0  0  0  0  0  0  0  0  0  0  0  0
    6.5104   -0.1183   -0.6920 H   0  0  0  0  0  0  0  0  0  0  0  0
    5.0972    0.3159   -1.6935 H   0  0  0  0  0  0  0  0  0  0  0  0
    5.3997   -1.3946   -1.2628 H   0  0  0  0  0  0  0  0  0  0  0  0
  1  8  1  0  0  0  0
  2  4  2  0  0  0  0
  3 36  1  0  0  0  0
  4  1  1  0  0  0  0
  4  5  1  0  0  0  0
  5  7  1  0  0  0  0
  5  6  1  1  0  0  0
  7 18  1  6  0  0  0
  7  8  1  0  0  0  0
  7 14  1  0  0  0  0
  8  9  1  1  0  0  0
 10  5  1  0  0  0  0
 10 11  1  0  0  0  0
 12 10  1  0  0  0  0
 13 10  1  0  0  0  0
 14 16  1  0  0  0  0
 14 17  1  0  0  0  0
 15 14  1  0  0  0  0
 18 21  1  0  0  0  0
 19 18  1  0  0  0  0
 20 18  1  0  0  0  0
 21 23  1  0  0  0  0
 21 22  1  0  0  0  0
 23 24  1  0  0  0  0
 23 25  1  0  0  0  0
 26 23  1  0  0  0  0
 27 28  1  0  0  0  0
 27 21  1  0  0  0  0
 29 27  1  0  0  0  0
 30 27  1  0  0  0  0
 31  8  1  0  0  0  0
 31 32  2  0  0  0  0
 32 33  1  0  0  0  0
 34 32  1  0  0  0  0
 34 35  1  0  0  0  0
 36 34  2  0  0  0  0
 37 39  2  0  0  0  0
 37 36  1  0  0  0  0
 38 37  1  0  0  0  0
 39 31  1  0  0  0  0
 40 39  1  0  0  0  0
 41 42  1  0  0  0  0
 41  3  1  0  0  0  0
 43 41  1  0  0  0  0
 44 41  1  0  0  0  0
M  END
$$$$
